taxonomy/R5-35000-1.glm
// R5-35000-1.glm

module powerflow
{ 
     solver_method NR; 
}

object regulator:1861
{ 
     name R5-35-00-1_reg_1; 
     from R5-35-00-1_node_339; 
     to R5-35-00-1_meter_48; 
     phases ABCN; 
     configuration regulator_configuration:1862; 
} 

object regulator_configuration:1862
{ 
     name feeder_reg_cfg; 
     Control OUTPUT_VOLTAGE; 
     band_center 20748.0; 
     band_width 332; 
     connect_type WYE_WYE; 
     time_delay 30; 
     raise_taps 16; 
     lower_taps 16; 
     regulation 0.10; 
     tap_pos_A 0; 
     tap_pos_B 0; 
     tap_pos_C 0; 
} 

object fuse:1789
{ 
     name R5-35-00-1_fuse_1; 
     phases ABCN; 
     from R5-35-00-1_node_279; 
     to R5-35-00-1_node_1; 
     current_limit 75; 
     status CLOSED; 
} 

object fuse:1790
{ 
     name R5-35-00-1_fuse_2; 
     phases ABCN; 
     from R5-35-00-1_node_278; 
     to R5-35-00-1_node_2; 
     current_limit 75; 
     status CLOSED; 
} 

object fuse:1791
{ 
     name R5-35-00-1_fuse_3; 
     phases CN; 
     from R5-35-00-1_node_25; 
     to R5-35-00-1_node_24; 
     current_limit 50; 
     status CLOSED; 
} 

object fuse:1792
{ 
     name R5-35-00-1_fuse_4; 
     phases CN; 
     from R5-35-00-1_node_26; 
     to R5-35-00-1_node_30; 
     current_limit 50; 
     status CLOSED; 
} 

object fuse:1793
{ 
     name R5-35-00-1_fuse_5; 
     phases BN; 
     from R5-35-00-1_node_238; 
     to R5-35-00-1_node_51; 
     current_limit 50; 
     status CLOSED; 
} 

object fuse:1794
{ 
     name R5-35-00-1_fuse_6; 
     phases CN; 
     from R5-35-00-1_node_242; 
     to R5-35-00-1_node_52; 
     current_limit 50; 
     status CLOSED; 
} 

object fuse:1795
{ 
     name R5-35-00-1_fuse_7; 
     phases AN; 
     from R5-35-00-1_node_241; 
     to R5-35-00-1_node_57; 
     current_limit 75; 
     status CLOSED; 
} 

object fuse:1796
{ 
     name R5-35-00-1_fuse_8; 
     phases BN; 
     from R5-35-00-1_node_222; 
     to R5-35-00-1_node_65; 
     current_limit 50; 
     status CLOSED; 
} 

object fuse:1797
{ 
     name R5-35-00-1_fuse_9; 
     phases CN; 
     from R5-35-00-1_node_221; 
     to R5-35-00-1_node_75; 
     current_limit 75; 
     status CLOSED; 
} 

object fuse:1798
{ 
     name R5-35-00-1_fuse_10; 
     phases CN; 
     from R5-35-00-1_node_272; 
     to R5-35-00-1_node_91; 
     current_limit 50; 
     status CLOSED; 
} 

object fuse:1799
{ 
     name R5-35-00-1_fuse_11; 
     phases BN; 
     from R5-35-00-1_node_271; 
     to R5-35-00-1_node_101; 
     current_limit 50; 
     status CLOSED; 
} 

object fuse:1800
{ 
     name R5-35-00-1_fuse_12; 
     phases AN; 
     from R5-35-00-1_node_273; 
     to R5-35-00-1_node_103; 
     current_limit 50; 
     status CLOSED; 
} 

object fuse:1801
{ 
     name R5-35-00-1_fuse_13; 
     phases AN; 
     from R5-35-00-1_node_288; 
     to R5-35-00-1_node_110; 
     current_limit 50; 
     status CLOSED; 
} 

object fuse:1802
{ 
     name R5-35-00-1_fuse_14; 
     phases BN; 
     from R5-35-00-1_node_230; 
     to R5-35-00-1_node_112; 
     current_limit 50; 
     status CLOSED; 
} 

object fuse:1803
{ 
     name R5-35-00-1_fuse_15; 
     phases CN; 
     from R5-35-00-1_node_227; 
     to R5-35-00-1_node_113; 
     current_limit 50; 
     status CLOSED; 
} 

object fuse:1804
{ 
     name R5-35-00-1_fuse_16; 
     phases AN; 
     from R5-35-00-1_node_231; 
     to R5-35-00-1_node_114; 
     current_limit 50; 
     status CLOSED; 
} 

object fuse:1805
{ 
     name R5-35-00-1_fuse_17; 
     phases CN; 
     from R5-35-00-1_node_263; 
     to R5-35-00-1_node_133; 
     current_limit 50; 
     status CLOSED; 
} 

object fuse:1806
{ 
     name R5-35-00-1_fuse_18; 
     phases BN; 
     from R5-35-00-1_node_264; 
     to R5-35-00-1_node_134; 
     current_limit 50; 
     status CLOSED; 
} 

object fuse:1807
{ 
     name R5-35-00-1_fuse_19; 
     phases AN; 
     from R5-35-00-1_node_220; 
     to R5-35-00-1_node_143; 
     current_limit 50; 
     status CLOSED; 
} 

object fuse:1808
{ 
     name R5-35-00-1_fuse_20; 
     phases CN; 
     from R5-35-00-1_node_249; 
     to R5-35-00-1_node_152; 
     current_limit 50; 
     status CLOSED; 
} 

object fuse:1809
{ 
     name R5-35-00-1_fuse_21; 
     phases ABCN; 
     from R5-35-00-1_node_165; 
     to R5-35-00-1_node_166; 
     current_limit 50; 
     status CLOSED; 
} 

object fuse:1810
{ 
     name R5-35-00-1_fuse_22; 
     phases ABCN; 
     from R5-35-00-1_node_197; 
     to R5-35-00-1_node_196; 
     current_limit 500; 
     status CLOSED; 
} 

object fuse:1811
{ 
     name R5-35-00-1_fuse_23; 
     phases ABCN; 
     from R5-35-00-1_node_206; 
     to R5-35-00-1_node_200; 
     current_limit 50; 
     status CLOSED; 
} 

object fuse:1812
{ 
     name R5-35-00-1_fuse_24; 
     phases ABCN; 
     from R5-35-00-1_node_205; 
     to R5-35-00-1_node_204; 
     current_limit 500; 
     status CLOSED; 
} 

object fuse:1813
{ 
     name R5-35-00-1_fuse_25; 
     phases ABCN; 
     from R5-35-00-1_node_214; 
     to R5-35-00-1_node_210; 
     current_limit 500; 
     status CLOSED; 
} 

object fuse:1814
{ 
     name R5-35-00-1_fuse_26; 
     phases ABCN; 
     from R5-35-00-1_node_213; 
     to R5-35-00-1_node_212; 
     current_limit 50; 
     status CLOSED; 
} 

object fuse:1815
{ 
     name R5-35-00-1_fuse_27; 
     phases ABCN; 
     from R5-35-00-1_node_324; 
     to R5-35-00-1_node_214; 
     current_limit 500; 
     status CLOSED; 
} 

object fuse:1816
{ 
     name R5-35-00-1_fuse_28; 
     phases ABCN; 
     from R5-35-00-1_node_247; 
     to R5-35-00-1_node_245; 
     current_limit 50; 
     status CLOSED; 
} 

object fuse:1817
{ 
     name R5-35-00-1_fuse_29; 
     phases AN; 
     from R5-35-00-1_node_265; 
     to R5-35-00-1_node_255; 
     current_limit 50; 
     status CLOSED; 
} 

object fuse:1818
{ 
     name R5-35-00-1_fuse_30; 
     phases ABCN; 
     from R5-35-00-1_node_262; 
     to R5-35-00-1_node_256; 
     current_limit 50; 
     status CLOSED; 
} 

object fuse:1819
{ 
     name R5-35-00-1_fuse_31; 
     phases CN; 
     from R5-35-00-1_node_292; 
     to R5-35-00-1_node_283; 
     current_limit 50; 
     status CLOSED; 
} 

object fuse:1820
{ 
     name R5-35-00-1_fuse_32; 
     phases BN; 
     from R5-35-00-1_node_291; 
     to R5-35-00-1_node_295; 
     current_limit 50; 
     status CLOSED; 
} 

object fuse:1821
{ 
     name R5-35-00-1_fuse_33; 
     phases CN; 
     from R5-35-00-1_node_314; 
     to R5-35-00-1_node_301; 
     current_limit 75; 
     status CLOSED; 
} 

object fuse:1822
{ 
     name R5-35-00-1_fuse_34; 
     phases AN; 
     from R5-35-00-1_node_315; 
     to R5-35-00-1_node_302; 
     current_limit 500; 
     status CLOSED; 
} 

object fuse:1823
{ 
     name R5-35-00-1_fuse_35; 
     phases BN; 
     from R5-35-00-1_node_316; 
     to R5-35-00-1_node_307; 
     current_limit 50; 
     status CLOSED; 
} 

object fuse:1824
{ 
     name R5-35-00-1_fuse_36; 
     phases ABCN; 
     from R5-35-00-1_node_322; 
     to R5-35-00-1_node_325; 
     current_limit 50; 
     status CLOSED; 
} 

object line_configuration:13
{ 
     conductor_A underground_line_conductor:2; 
     conductor_B underground_line_conductor:2; 
     conductor_C underground_line_conductor:2; 
     conductor_N underground_line_conductor:2; 
     spacing line_spacing:7; 
} 

object line_configuration:14
{ 
     conductor_A underground_line_conductor:3; 
     conductor_B underground_line_conductor:3; 
     conductor_C underground_line_conductor:3; 
     conductor_N underground_line_conductor:3; 
     spacing line_spacing:7; 
} 

object line_configuration:15
{ 
     conductor_A underground_line_conductor:4; 
     conductor_N underground_line_conductor:4; 
     spacing line_spacing:8; 
} 

object line_configuration:16
{ 
     conductor_A underground_line_conductor:5; 
     conductor_N underground_line_conductor:5; 
     spacing line_spacing:8; 
} 

object line_configuration:17
{ 
     conductor_A overhead_line_conductor:6; 
     conductor_B overhead_line_conductor:6; 
     conductor_C overhead_line_conductor:6; 
     conductor_N overhead_line_conductor:6; 
     spacing line_spacing:9; 
} 

object line_configuration:18
{ 
     conductor_B underground_line_conductor:5; 
     conductor_N underground_line_conductor:5; 
     spacing line_spacing:10; 
} 

object line_configuration:19
{ 
     conductor_A underground_line_conductor:3; 
     conductor_N underground_line_conductor:3; 
     spacing line_spacing:8; 
} 

object line_configuration:20
{ 
     conductor_A underground_line_conductor:5; 
     conductor_B underground_line_conductor:5; 
     conductor_C underground_line_conductor:5; 
     conductor_N underground_line_conductor:5; 
     spacing line_spacing:7; 
} 

object line_configuration:21
{ 
     conductor_C underground_line_conductor:3; 
     conductor_N underground_line_conductor:3; 
     spacing line_spacing:11; 
} 

object line_configuration:22
{ 
     conductor_C underground_line_conductor:2; 
     conductor_N underground_line_conductor:2; 
     spacing line_spacing:11; 
} 

object line_configuration:23
{ 
     conductor_C underground_line_conductor:5; 
     conductor_N underground_line_conductor:5; 
     spacing line_spacing:11; 
} 

object line_configuration:24
{ 
     conductor_B underground_line_conductor:2; 
     conductor_N underground_line_conductor:2; 
     spacing line_spacing:10; 
} 

object line_configuration:25
{ 
     conductor_B underground_line_conductor:3; 
     conductor_N underground_line_conductor:3; 
     spacing line_spacing:10; 
} 

object line_configuration:26
{ 
     conductor_A underground_line_conductor:2; 
     conductor_N underground_line_conductor:2; 
     spacing line_spacing:8; 
} 

object line_configuration:27
{ 
     conductor_A overhead_line_conductor:6; 
     conductor_B overhead_line_conductor:6; 
     conductor_C overhead_line_conductor:6; 
     conductor_N overhead_line_conductor:6; 
     spacing line_spacing:12; 
} 

object line_spacing:7
{ 
     distance_AB 12.0 in; 
     distance_BC 12.0 in; 
     distance_AC 12.0 in; 
     distance_AN 360.0 in; 
     distance_BN 360.0 in; 
     distance_CN 360.0 in; 
} 

object line_spacing:8
{ 
     distance_AN 360.0 in; 
} 

object line_spacing:9
{ 
     distance_AB 65.90000000004 in; 
     distance_BC 65.90000000004 in; 
     distance_AC 65.90000000004 in; 
     distance_AN 85.59999999996 in; 
     distance_BN 85.59999999996 in; 
     distance_CN 85.59999999996 in; 
} 

object line_spacing:10
{ 
     distance_BN 360.0 in; 
} 

object line_spacing:11
{ 
     distance_CN 360.0 in; 
} 

object line_spacing:12
{ 
     distance_AB 60.50000000004 in; 
     distance_BC 60.50000000004 in; 
     distance_AC 60.50000000004 in; 
     distance_AN 84.6 in; 
     distance_BN 84.6 in; 
     distance_CN 84.6 in; 
} 

object load:366
{ 
     name R5-35-00-1_load_1; 
     parent R5-35-00-1_meter_1; 
     phases ABCN; 
     voltage_A 19918.58+0.0j; 
     voltage_B -9959.29-17250j; 
     voltage_C -9959.29+17250j; 
     constant_power_A 108400+29900j; 
     constant_power_B 108400+29900j; 
     constant_power_C 108400+29900j; 
     nominal_voltage 19918.58; 
     load_class C; 
} 

object load:367
{ 
     name R5-35-00-1_load_2; 
     parent R5-35-00-1_meter_2; 
     phases ABCN; 
     voltage_A 19918.58+0.0j; 
     voltage_B -9959.29-17250j; 
     voltage_C -9959.29+17250j; 
     constant_power_A 5300+3300j; 
     constant_power_B 5300+3300j; 
     constant_power_C 5300+3300j; 
     nominal_voltage 19918.58; 
     load_class C; 
} 

object load:368
{ 
     name R5-35-00-1_load_3; 
     parent R5-35-00-1_meter_3; 
     phases ABCN; 
     voltage_A 19918.58+0.0j; 
     voltage_B -9959.29-17250j; 
     voltage_C -9959.29+17250j; 
     constant_power_A 14900+9300j; 
     constant_power_B 14900+9300j; 
     constant_power_C 14900+9300j; 
     nominal_voltage 19918.58; 
     load_class C; 
} 

object load:369
{ 
     name R5-35-00-1_load_4; 
     parent R5-35-00-1_meter_4; 
     phases ABCN; 
     voltage_A 19918.58+0.0j; 
     voltage_B -9959.29-17250j; 
     voltage_C -9959.29+17250j; 
     constant_power_A 126900+78700j; 
     constant_power_B 126900+78700j; 
     constant_power_C 126900+78700j; 
     nominal_voltage 19918.58; 
     load_class C; 
} 

object load:370
{ 
     name R5-35-00-1_load_5; 
     parent R5-35-00-1_meter_5; 
     phases ABCN; 
     voltage_A 19918.58+0.0j; 
     voltage_B -9959.29-17250j; 
     voltage_C -9959.29+17250j; 
     constant_power_A 33300+16650j; 
     constant_power_B 33300+16650j; 
     constant_power_C 33300+16650j; 
     nominal_voltage 19918.58; 
     load_class C; 
} 

object load:371
{ 
     name R5-35-00-1_load_6; 
     parent R5-35-00-1_meter_6; 
     phases ABCN; 
     voltage_A 19918.58+0.0j; 
     voltage_B -9959.29-17250j; 
     voltage_C -9959.29+17250j; 
     constant_power_A 14700+9100j; 
     constant_power_B 14700+9100j; 
     constant_power_C 14700+9100j; 
     nominal_voltage 19918.58; 
     load_class C; 
} 

object load:372
{ 
     name R5-35-00-1_load_7; 
     parent R5-35-00-1_meter_7; 
     phases ABCN; 
     voltage_A 19918.58+0.0j; 
     voltage_B -9959.29-17250j; 
     voltage_C -9959.29+17250j; 
     constant_power_A 30300+18800j; 
     constant_power_B 30300+18800j; 
     constant_power_C 30300+18800j; 
     nominal_voltage 19918.58; 
     load_class C; 
} 

object load:373
{ 
     name R5-35-00-1_load_8; 
     parent R5-35-00-1_meter_8; 
     phases ABCN; 
     voltage_A 19918.58+0.0j; 
     voltage_B -9959.29-17250j; 
     voltage_C -9959.29+17250j; 
     constant_power_A 5586+3528j; 
     constant_power_B 5586+3528j; 
     constant_power_C 5586+3528j; 
     nominal_voltage 19918.58; 
     load_class C; 
} 

object load:374
{ 
     name R5-35-00-1_load_9; 
     parent R5-35-00-1_meter_9; 
     phases CN; 
     voltage_C -9959.29+17250j; 
     constant_power_C 19980+9990j; 
     nominal_voltage 19918.58; 
     load_class C; 
} 

object load:375
{ 
     name R5-35-00-1_load_10; 
     parent R5-35-00-1_meter_10; 
     phases CN; 
     voltage_C -9959.29+17250j; 
     constant_power_C 13320+6660j; 
     nominal_voltage 19918.58; 
     load_class C; 
} 

object load:376
{ 
     name R5-35-00-1_load_11; 
     parent R5-35-00-1_meter_11; 
     phases CN; 
     voltage_C -9959.29+17250j; 
     constant_power_C 200+100j; 
     nominal_voltage 19918.58; 
     load_class C; 
} 

object load:377
{ 
     name R5-35-00-1_load_12; 
     parent R5-35-00-1_meter_12; 
     phases CN; 
     voltage_C -9959.29+17250j; 
     constant_power_C 200+100j; 
     nominal_voltage 19918.58; 
     load_class C; 
} 

object load:378
{ 
     name R5-35-00-1_load_13; 
     parent R5-35-00-1_meter_13; 
     phases CN; 
     voltage_C -9959.29+17250j; 
     constant_power_C 45+27j; 
     nominal_voltage 19918.58; 
     load_class C; 
} 

object load:379
{ 
     name R5-35-00-1_load_14; 
     parent R5-35-00-1_meter_14; 
     phases CN; 
     voltage_C -9959.29+17250j; 
     constant_power_C 6660+3330j; 
     nominal_voltage 19918.58; 
     load_class C; 
} 

object load:380
{ 
     name R5-35-00-1_load_15; 
     parent R5-35-00-1_meter_15; 
     phases ABCN; 
     voltage_A 19918.58+0.0j; 
     voltage_B -9959.29-17250j; 
     voltage_C -9959.29+17250j; 
     constant_power_A 98000+60800j; 
     constant_power_B 98000+60800j; 
     constant_power_C 98000+60800j; 
     nominal_voltage 19918.58; 
     load_class C; 
} 

object load:381
{ 
     name R5-35-00-1_load_16; 
     parent R5-35-00-1_meter_16; 
     phases ABCN; 
     voltage_A 19918.58+0.0j; 
     voltage_B -9959.29-17250j; 
     voltage_C -9959.29+17250j; 
     constant_power_A 6800+4200j; 
     constant_power_B 6800+4200j; 
     constant_power_C 6800+4200j; 
     nominal_voltage 19918.58; 
     load_class C; 
} 

object load:382
{ 
     name R5-35-00-1_load_17; 
     parent R5-35-00-1_meter_17; 
     phases AN; 
     voltage_A 19918.58+0.0j; 
     constant_power_A 1220+648j; 
     nominal_voltage 19918.58; 
     load_class C; 
} 

object load:383
{ 
     name R5-35-00-1_load_18; 
     parent R5-35-00-1_meter_18; 
     phases ABCN; 
     voltage_A 19918.58+0.0j; 
     voltage_B -9959.29-17250j; 
     voltage_C -9959.29+17250j; 
     constant_power_A 22200+13800j; 
     constant_power_B 22200+13800j; 
     constant_power_C 22200+13800j; 
     nominal_voltage 19918.58; 
     load_class C; 
} 

object load:384
{ 
     name R5-35-00-1_load_19; 
     parent R5-35-00-1_meter_19; 
     phases CN; 
     voltage_C -9959.29+17250j; 
     constant_power_C 1055+598j; 
     nominal_voltage 19918.58; 
     load_class C; 
} 

object load:385
{ 
     name R5-35-00-1_load_20; 
     parent R5-35-00-1_meter_20; 
     phases AN; 
     voltage_A 19918.58+0.0j; 
     constant_power_A 1006+570j; 
     nominal_voltage 19918.58; 
     load_class C; 
} 

object load:386
{ 
     name R5-35-00-1_load_21; 
     parent R5-35-00-1_meter_21; 
     phases AN; 
     voltage_A 19918.58+0.0j; 
     constant_power_A 1056+598j; 
     nominal_voltage 19918.58; 
     load_class C; 
} 

object load:387
{ 
     name R5-35-00-1_load_22; 
     parent R5-35-00-1_meter_22; 
     phases CN; 
     voltage_C -9959.29+17250j; 
     constant_power_C 21708+13065j; 
     nominal_voltage 19918.58; 
     load_class C; 
} 

object load:388
{ 
     name R5-35-00-1_load_23; 
     parent R5-35-00-1_meter_23; 
     phases AN; 
     voltage_A 19918.58+0.0j; 
     constant_power_A 79920+39960j; 
     nominal_voltage 19918.58; 
     load_class C; 
} 

object load:389
{ 
     name R5-35-00-1_load_24; 
     parent R5-35-00-1_meter_24; 
     phases AN; 
     voltage_A 19918.58+0.0j; 
     constant_power_A 283+161j; 
     nominal_voltage 19918.58; 
     load_class C; 
} 

object load:390
{ 
     name R5-35-00-1_load_25; 
     parent R5-35-00-1_meter_25; 
     phases AN; 
     voltage_A 19918.58+0.0j; 
     constant_power_A 900+600j; 
     nominal_voltage 19918.58; 
     load_class C; 
} 

object load:391
{ 
     name R5-35-00-1_load_26; 
     parent R5-35-00-1_meter_26; 
     phases AN; 
     voltage_A 19918.58+0.0j; 
     constant_power_A 5500+3400j; 
     nominal_voltage 19918.58; 
     load_class C; 
} 

object load:392
{ 
     name R5-35-00-1_load_27; 
     parent R5-35-00-1_meter_27; 
     phases ABCN; 
     voltage_A 19918.58+0.0j; 
     voltage_B -9959.29-17250j; 
     voltage_C -9959.29+17250j; 
     constant_power_A 280100+195400j; 
     constant_power_B 280100+195400j; 
     constant_power_C 280100+195400j; 
     nominal_voltage 19918.58; 
     load_class C; 
} 

object load:393
{ 
     name R5-35-00-1_load_28; 
     parent R5-35-00-1_meter_28; 
     phases ABCN; 
     voltage_A 19918.58+0.0j; 
     voltage_B -9959.29-17250j; 
     voltage_C -9959.29+17250j; 
     constant_power_A 13320+6660j; 
     constant_power_B 13320+6660j; 
     constant_power_C 13320+6660j; 
     nominal_voltage 19918.58; 
     load_class C; 
} 

object load:394
{ 
     name R5-35-00-1_load_29; 
     parent R5-35-00-1_meter_29; 
     phases ABCN; 
     voltage_A 19918.58+0.0j; 
     voltage_B -9959.29-17250j; 
     voltage_C -9959.29+17250j; 
     constant_power_A 35400+21900j; 
     constant_power_B 35400+21900j; 
     constant_power_C 35400+21900j; 
     nominal_voltage 19918.58; 
     load_class C; 
} 

object load:395
{ 
     name R5-35-00-1_load_30; 
     parent R5-35-00-1_meter_30; 
     phases CN; 
     voltage_C -9959.29+17250j; 
     constant_power_C 3069+1760j; 
     nominal_voltage 19918.58; 
     load_class C; 
} 

object load:396
{ 
     name R5-35-00-1_load_31; 
     parent R5-35-00-1_meter_31; 
     phases CN; 
     voltage_C -9959.29+17250j; 
     constant_power_C 1704+836j; 
     nominal_voltage 19918.58; 
     load_class C; 
} 

object load:397
{ 
     name R5-35-00-1_load_32; 
     parent R5-35-00-1_meter_32; 
     phases BN; 
     voltage_B -9959.29-17250j; 
     constant_power_B 1176+669j; 
     nominal_voltage 19918.58; 
     load_class C; 
} 

object load:398
{ 
     name R5-35-00-1_load_33; 
     parent R5-35-00-1_meter_33; 
     phases BN; 
     voltage_B -9959.29-17250j; 
     constant_power_B 413+201j; 
     nominal_voltage 19918.58; 
     load_class C; 
} 

object load:399
{ 
     name R5-35-00-1_load_34; 
     parent R5-35-00-1_meter_34; 
     phases AN; 
     voltage_A 19918.58+0.0j; 
     constant_power_A 4000+2500j; 
     nominal_voltage 19918.58; 
     load_class C; 
} 

object load:400
{ 
     name R5-35-00-1_load_35; 
     parent R5-35-00-1_meter_35; 
     phases BN; 
     voltage_B -9959.29-17250j; 
     constant_power_B 26640+13320j; 
     nominal_voltage 19918.58; 
     load_class C; 
} 

object load:401
{ 
     name R5-35-00-1_load_36; 
     parent R5-35-00-1_meter_36; 
     phases CN; 
     voltage_C -9959.29+17250j; 
     constant_power_C 402+228j; 
     nominal_voltage 19918.58; 
     load_class C; 
} 

object load:402
{ 
     name R5-35-00-1_load_37; 
     parent R5-35-00-1_meter_37; 
     phases CN; 
     voltage_C -9959.29+17250j; 
     constant_power_C 7630+4480j; 
     nominal_voltage 19918.58; 
     load_class C; 
} 

object load:403
{ 
     name R5-35-00-1_load_38; 
     parent R5-35-00-1_meter_38; 
     phases AN; 
     voltage_A 19918.58+0.0j; 
     constant_power_A 40000+20000j; 
     nominal_voltage 19918.58; 
     load_class C; 
} 

object load:404
{ 
     name R5-35-00-1_load_39; 
     parent R5-35-00-1_meter_39; 
     phases AN; 
     voltage_A 19918.58+0.0j; 
     constant_power_A 2500+1500j; 
     nominal_voltage 19918.58; 
     load_class C; 
} 

object load:405
{ 
     name R5-35-00-1_load_40; 
     parent R5-35-00-1_meter_40; 
     phases ABCN; 
     voltage_A 19918.58+0.0j; 
     voltage_B -9959.29-17250j; 
     voltage_C -9959.29+17250j; 
     constant_power_A 18700+11600j; 
     constant_power_B 18700+11600j; 
     constant_power_C 18700+11600j; 
     nominal_voltage 19918.58; 
     load_class C; 
} 

object load:406
{ 
     name R5-35-00-1_load_41; 
     parent R5-35-00-1_meter_41; 
     phases ABCN; 
     voltage_A 19918.58+0.0j; 
     voltage_B -9959.29-17250j; 
     voltage_C -9959.29+17250j; 
     constant_power_A 10800+6700j; 
     constant_power_B 10800+6700j; 
     constant_power_C 10800+6700j; 
     nominal_voltage 19918.58; 
     load_class C; 
} 

object load:407
{ 
     name R5-35-00-1_load_42; 
     parent R5-35-00-1_meter_42; 
     phases ABCN; 
     voltage_A 19918.58+0.0j; 
     voltage_B -9959.29-17250j; 
     voltage_C -9959.29+17250j; 
     constant_power_A 23700+14700j; 
     constant_power_B 23700+14700j; 
     constant_power_C 23700+14700j; 
     nominal_voltage 19918.58; 
     load_class C;
} 

object load:408
{ 
     name R5-35-00-1_load_43; 
     parent R5-35-00-1_meter_43; 
     phases CN; 
     voltage_C -9959.29+17250j; 
     constant_power_C 97500+60400j; 
     nominal_voltage 19918.58; 
     load_class C; 
} 

object load:409
{ 
     name R5-35-00-1_load_44; 
     parent R5-35-00-1_meter_44; 
     phases CN; 
     voltage_C -9959.29+17250j; 
     constant_power_C 66500+41200j; 
     nominal_voltage 19918.58; 
     load_class C; 
} 

object load:410
{ 
     name R5-35-00-1_load_45; 
     parent R5-35-00-1_meter_45; 
     phases CN; 
     voltage_C -9959.29+17250j; 
     constant_power_C 6381+3606j; 
     nominal_voltage 19918.58; 
     load_class C; 
} 

object load:411
{ 
     name R5-35-00-1_load_46; 
     parent R5-35-00-1_meter_46; 
     phases CN; 
     voltage_C -9959.29+17250j; 
     constant_power_C 910+518j; 
     nominal_voltage 19918.58; 
     load_class C; 
} 

object load:412
{ 
     name R5-35-00-1_load_47; 
     parent R5-35-00-1_meter_47; 
     phases CN; 
     voltage_C -9959.29+17250j; 
     constant_power_C 1545+879j; 
     nominal_voltage 19918.58; 
     load_class C; 
} 

object meter:989
{ 
     name R5-35-00-1_meter_1; 
     phases ABCN; 
     voltage_A 19918.58+0.0j; 
     voltage_B -9959.29-17250j; 
     voltage_C -9959.29+17250j; 
     nominal_voltage 19918.58; 
} 

object meter:990
{ 
     name R5-35-00-1_meter_2; 
     phases ABCN; 
     voltage_A 19918.58+0.0j; 
     voltage_B -9959.29-17250j; 
     voltage_C -9959.29+17250j; 
     nominal_voltage 19918.58; 
} 

object meter:991
{ 
     name R5-35-00-1_meter_3; 
     phases ABCN; 
     voltage_A 19918.58+0.0j; 
     voltage_B -9959.29-17250j; 
     voltage_C -9959.29+17250j; 
     nominal_voltage 19918.58; 
} 

object meter:992
{ 
     name R5-35-00-1_meter_4; 
     phases ABCN; 
     voltage_A 19918.58+0.0j; 
     voltage_B -9959.29-17250j; 
     voltage_C -9959.29+17250j; 
     nominal_voltage 19918.58; 
} 

object meter:993
{ 
     name R5-35-00-1_meter_5; 
     phases ABCN; 
     voltage_A 19918.58+0.0j; 
     voltage_B -9959.29-17250j; 
     voltage_C -9959.29+17250j; 
     nominal_voltage 19918.58; 
} 

object meter:994
{ 
     name R5-35-00-1_meter_6; 
     phases ABCN; 
     voltage_A 19918.58+0.0j; 
     voltage_B -9959.29-17250j; 
     voltage_C -9959.29+17250j; 
     nominal_voltage 19918.58; 
} 

object meter:995
{ 
     name R5-35-00-1_meter_7; 
     phases ABCN; 
     voltage_A 19918.58+0.0j; 
     voltage_B -9959.29-17250j; 
     voltage_C -9959.29+17250j; 
     nominal_voltage 19918.58; 
} 

object meter:996
{ 
     name R5-35-00-1_meter_8; 
     phases ABCN; 
     voltage_A 19918.58+0.0j; 
     voltage_B -9959.29-17250j; 
     voltage_C -9959.29+17250j; 
     nominal_voltage 19918.58;
} 

object meter:997
{ 
     name R5-35-00-1_meter_9; 
     phases CN; 
     voltage_C -9959.29+17250j; 
     nominal_voltage 19918.58; 
} 

object meter:998
{ 
     name R5-35-00-1_meter_10; 
     phases CN; 
     voltage_C -9959.29+17250j; 
     nominal_voltage 19918.58; 
} 

object meter:999
{ 
     name R5-35-00-1_meter_11; 
     phases CN; 
     voltage_C -9959.29+17250j; 
     nominal_voltage 19918.58; 
} 

object meter:1000
{ 
     name R5-35-00-1_meter_12; 
     phases CN; 
     voltage_C -9959.29+17250j; 
     nominal_voltage 19918.58; 
} 

object meter:1001
{ 
     name R5-35-00-1_meter_13; 
     phases CN; 
     voltage_C -9959.29+17250j; 
     nominal_voltage 19918.58; 
} 

object meter:1002
{ 
     name R5-35-00-1_meter_14; 
     phases CN; 
     voltage_C -9959.29+17250j; 
     nominal_voltage 19918.58; 
} 

object meter:1003
{ 
     name R5-35-00-1_meter_15; 
     phases ABCN; 
     voltage_A 19918.58+0.0j; 
     voltage_B -9959.29-17250j; 
     voltage_C -9959.29+17250j; 
     nominal_voltage 19918.58; 
} 

object meter:1004
{ 
     name R5-35-00-1_meter_16; 
     phases ABCN; 
     voltage_A 19918.58+0.0j; 
     voltage_B -9959.29-17250j; 
     voltage_C -9959.29+17250j; 
     nominal_voltage 19918.58; 
} 

object meter:1005
{ 
     name R5-35-00-1_meter_17; 
     phases AN; 
     voltage_A 19918.58+0.0j; 
     nominal_voltage 19918.58; 
} 

object meter:1006
{ 
     name R5-35-00-1_meter_18; 
     phases ABCN; 
     voltage_A 19918.58+0.0j; 
     voltage_B -9959.29-17250j; 
     voltage_C -9959.29+17250j; 
     nominal_voltage 19918.58; 
} 

object meter:1007
{ 
     name R5-35-00-1_meter_19; 
     phases CN; 
     voltage_C -9959.29+17250j; 
     nominal_voltage 19918.58; 
} 

object meter:1008
{ 
     name R5-35-00-1_meter_20; 
     phases AN; 
     voltage_A 19918.58+0.0j; 
     nominal_voltage 19918.58; 
} 

object meter:1009
{ 
     name R5-35-00-1_meter_21; 
     phases AN; 
     voltage_A 19918.58+0.0j; 
     nominal_voltage 19918.58; 
} 

object meter:1010
{ 
     name R5-35-00-1_meter_22; 
     phases CN; 
     voltage_C -9959.29+17250j; 
     nominal_voltage 19918.58; 
} 

object meter:1011
{ 
     name R5-35-00-1_meter_23; 
     phases AN; 
     voltage_A 19918.58+0.0j; 
     nominal_voltage 19918.58; 
} 

object meter:1012
{ 
     name R5-35-00-1_meter_24; 
     phases AN; 
     voltage_A 19918.58+0.0j; 
     nominal_voltage 19918.58; 
} 

object meter:1013
{ 
     name R5-35-00-1_meter_25; 
     phases AN; 
     voltage_A 19918.58+0.0j; 
     nominal_voltage 19918.58; 
} 

object meter:1014
{ 
     name R5-35-00-1_meter_26; 
     phases AN; 
     voltage_A 19918.58+0.0j; 
     nominal_voltage 19918.58; 
} 

object meter:1015
{ 
     name R5-35-00-1_meter_27; 
     phases ABCN; 
     voltage_A 19918.58+0.0j; 
     voltage_B -9959.29-17250j; 
     voltage_C -9959.29+17250j; 
     nominal_voltage 19918.58; 
} 

object meter:1016
{ 
     name R5-35-00-1_meter_28; 
     phases ABCN; 
     voltage_A 19918.58+0.0j; 
     voltage_B -9959.29-17250j; 
     voltage_C -9959.29+17250j; 
     nominal_voltage 19918.58; 
} 

object meter:1017
{ 
     name R5-35-00-1_meter_29; 
     phases ABCN; 
     voltage_A 19918.58+0.0j; 
     voltage_B -9959.29-17250j; 
     voltage_C -9959.29+17250j; 
     nominal_voltage 19918.58; 
} 

object meter:1018
{ 
     name R5-35-00-1_meter_30; 
     phases CN; 
     voltage_C -9959.29+17250j; 
     nominal_voltage 19918.58; 
} 

object meter:1019
{ 
     name R5-35-00-1_meter_31; 
     phases CN; 
     voltage_C -9959.29+17250j; 
     nominal_voltage 19918.58; 
} 

object meter:1020
{ 
     name R5-35-00-1_meter_32; 
     phases BN; 
     voltage_B -9959.29-17250j; 
     nominal_voltage 19918.58; 
} 

object meter:1021
{ 
     name R5-35-00-1_meter_33; 
     phases BN; 
     voltage_B -9959.29-17250j; 
     nominal_voltage 19918.58; 
} 

object meter:1022
{ 
     name R5-35-00-1_meter_34; 
     phases AN; 
     voltage_A 19918.58+0.0j; 
     nominal_voltage 19918.58; 
} 

object meter:1023
{ 
     name R5-35-00-1_meter_35; 
     phases BN; 
     voltage_B -9959.29-17250j; 
     nominal_voltage 19918.58; 
} 

object meter:1024
{ 
     name R5-35-00-1_meter_36; 
     phases CN; 
     voltage_C -9959.29+17250j; 
     nominal_voltage 19918.58; 
} 

object meter:1025
{ 
     name R5-35-00-1_meter_37; 
     phases CN; 
     voltage_C -9959.29+17250j; 
     nominal_voltage 19918.58;
} 

object meter:1026
{ 
     name R5-35-00-1_meter_38; 
     phases AN; 
     voltage_A 19918.58+0.0j; 
     nominal_voltage 19918.58; 
} 

object meter:1027
{ 
     name R5-35-00-1_meter_39; 
     phases AN; 
     voltage_A 19918.58+0.0j; 
     nominal_voltage 19918.58; 
} 

object meter:1028
{ 
     name R5-35-00-1_meter_40; 
     phases ABCN; 
     voltage_A 19918.58+0.0j; 
     voltage_B -9959.29-17250j; 
     voltage_C -9959.29+17250j; 
     nominal_voltage 19918.58; 
} 

object meter:1029
{ 
     name R5-35-00-1_meter_41; 
     phases ABCN; 
     voltage_A 19918.58+0.0j; 
     voltage_B -9959.29-17250j; 
     voltage_C -9959.29+17250j; 
     nominal_voltage 19918.58; 
} 

object meter:1030
{ 
     name R5-35-00-1_meter_42; 
     phases ABCN; 
     voltage_A 19918.58+0.0j; 
     voltage_B -9959.29-17250j; 
     voltage_C -9959.29+17250j; 
     nominal_voltage 19918.58; 
} 

object meter:1031
{ 
     name R5-35-00-1_meter_43; 
     phases CN; 
     voltage_C -9959.29+17250j; 
     nominal_voltage 19918.58; 
} 

object meter:1032
{ 
     name R5-35-00-1_meter_44; 
     phases CN; 
     voltage_C -9959.29+17250j; 
     nominal_voltage 19918.58; 
} 

object meter:1033
{ 
     name R5-35-00-1_meter_45; 
     phases CN; 
     voltage_C -9959.29+17250j; 
     nominal_voltage 19918.58; 
} 

object meter:1034
{ 
     name R5-35-00-1_meter_46; 
     phases CN; 
     voltage_C -9959.29+17250j; 
     nominal_voltage 19918.58; 
} 

object meter:1035
{ 
     name R5-35-00-1_meter_47; 
     phases CN; 
     voltage_C -9959.29+17250j; 
     nominal_voltage 19918.58; 
} 

// Meter at feeder 
object meter:1860
{ 
     name R5-35-00-1_meter_48; 
     phases ABCN; 
     nominal_voltage 19918.58; 
     voltage_A 19918.58+0.0j; 
     voltage_B -9959.29-17250j; 
     voltage_C -9959.29+17250j; 
} 

object node:28
{ 
     name R5-35-00-1_node_1; 
     phases ABCN; 
     voltage_A 19918.58+0.0j; 
     voltage_B -9959.29-17250j; 
     voltage_C -9959.29+17250j; 
     nominal_voltage 19918.58; 
} 

object node:29
{ 
     name R5-35-00-1_node_2; 
     phases ABCN; 
     voltage_A 19918.58+0.0j; 
     voltage_B -9959.29-17250j; 
     voltage_C -9959.29+17250j; 
     nominal_voltage 19918.58; 
} 

object node:30
{ 
     name R5-35-00-1_node_3; 
     phases ABCN; 
     voltage_A 19918.58+0.0j; 
     voltage_B -9959.29-17250j; 
     voltage_C -9959.29+17250j; 
     nominal_voltage 19918.58; 
} 

object node:31
{ 
     name R5-35-00-1_node_4; 
     phases AN; 
     voltage_A 19918.58+0.0j; 
     nominal_voltage 19918.58; 
} 

object node:32
{ 
     name R5-35-00-1_node_5; 
     phases AN; 
     voltage_A 19918.58+0.0j; 
     nominal_voltage 19918.58; 
} 

object node:33
{ 
     name R5-35-00-1_node_6; 
     phases AN; 
     voltage_A 19918.58+0.0j; 
     nominal_voltage 19918.58; 
} 

object node:34
{ 
     name R5-35-00-1_node_7; 
     phases AN; 
     voltage_A 19918.58+0.0j; 
     nominal_voltage 19918.58; 
} 

object node:35
{ 
     name R5-35-00-1_node_8; 
     phases ABCN; 
     voltage_A 19918.58+0.0j; 
     voltage_B -9959.29-17250j; 
     voltage_C -9959.29+17250j; 
     nominal_voltage 19918.58; 
} 

object node:36
{ 
     name R5-35-00-1_node_9; 
     phases ABCN; 
     voltage_A 19918.58+0.0j; 
     voltage_B -9959.29-17250j; 
     voltage_C -9959.29+17250j; 
     nominal_voltage 19918.58; 
} 

object node:37
{ 
     name R5-35-00-1_node_10; 
     phases ABCN; 
     voltage_A 19918.58+0.0j; 
     voltage_B -9959.29-17250j; 
     voltage_C -9959.29+17250j; 
     nominal_voltage 19918.58; 
} 

object node:38
{ 
     name R5-35-00-1_node_11; 
     phases ABCN; 
     voltage_A 19918.58+0.0j; 
     voltage_B -9959.29-17250j; 
     voltage_C -9959.29+17250j; 
     nominal_voltage 19918.58; 
} 

object node:39
{ 
     name R5-35-00-1_node_12; 
     phases AN; 
     voltage_A 19918.58+0.0j; 
     nominal_voltage 19918.58; 
} 

object node:40
{ 
     name R5-35-00-1_node_13; 
     phases BN; 
     voltage_B -9959.29-17250j; 
     nominal_voltage 19918.58; 
} 

object node:41
{ 
     name R5-35-00-1_node_14; 
     phases AN; 
     voltage_A 19918.58+0.0j; 
     nominal_voltage 19918.58; 
} 

object node:42
{ 
     name R5-35-00-1_node_15; 
     phases AN; 
     voltage_A 19918.58+0.0j; 
     nominal_voltage 19918.58; 
} 

object node:43
{ 
     name R5-35-00-1_node_16; 
     phases BN; 
     voltage_B -9959.29-17250j; 
     nominal_voltage 19918.58; 
} 

object node:44
{ 
     name R5-35-00-1_node_17; 
     phases ABCN; 
     voltage_A 19918.58+0.0j; 
     voltage_B -9959.29-17250j; 
     voltage_C -9959.29+17250j; 
     nominal_voltage 19918.58; 
} 

object node:45
{ 
     name R5-35-00-1_node_18; 
     phases AN; 
     voltage_A 19918.58+0.0j; 
     nominal_voltage 19918.58; 
} 

object node:46
{ 
     name R5-35-00-1_node_19; 
     phases ABCN; 
     voltage_A 19918.58+0.0j; 
     voltage_B -9959.29-17250j; 
     voltage_C -9959.29+17250j; 
     nominal_voltage 19918.58; 
} 

object node:47
{ 
     name R5-35-00-1_node_20; 
     phases ABCN; 
     voltage_A 19918.58+0.0j; 
     voltage_B -9959.29-17250j; 
     voltage_C -9959.29+17250j; 
     nominal_voltage 19918.58; 
} 

object node:48
{ 
     name R5-35-00-1_node_21; 
     phases ABCN; 
     voltage_A 19918.58+0.0j; 
     voltage_B -9959.29-17250j; 
     voltage_C -9959.29+17250j; 
     nominal_voltage 19918.58; 
} 

object node:49
{ 
     name R5-35-00-1_node_22; 
     phases ABCN; 
     voltage_A 19918.58+0.0j; 
     voltage_B -9959.29-17250j; 
     voltage_C -9959.29+17250j; 
     nominal_voltage 19918.58; 
} 

object node:50
{ 
     name R5-35-00-1_node_23; 
     phases CN; 
     voltage_C -9959.29+17250j; 
     nominal_voltage 19918.58; 
} 

object node:51
{ 
     name R5-35-00-1_node_24; 
     phases CN; 
     voltage_C -9959.29+17250j; 
     nominal_voltage 19918.58; 
} 

object node:52
{ 
     name R5-35-00-1_node_25; 
     phases CN; 
     voltage_C -9959.29+17250j; 
     nominal_voltage 19918.58; 
} 

object node:53
{ 
     name R5-35-00-1_node_26; 
     phases CN; 
     voltage_C -9959.29+17250j; 
     nominal_voltage 19918.58; 
} 

object node:54
{ 
     name R5-35-00-1_node_27; 
     phases CN; 
     voltage_C -9959.29+17250j; 
     nominal_voltage 19918.58; 
} 

object node:55
{ 
     name R5-35-00-1_node_28; 
     phases CN; 
     voltage_C -9959.29+17250j; 
     nominal_voltage 19918.58; 
} 

object node:56
{ 
     name R5-35-00-1_node_29; 
     phases CN; 
     voltage_C -9959.29+17250j; 
     nominal_voltage 19918.58; 
} 

object node:57
{ 
     name R5-35-00-1_node_30; 
     phases CN; 
     voltage_C -9959.29+17250j; 
     nominal_voltage 19918.58; 
} 

object node:58
{ 
     name R5-35-00-1_node_31; 
     phases ABCN; 
     voltage_A 19918.58+0.0j; 
     voltage_B -9959.29-17250j; 
     voltage_C -9959.29+17250j; 
     nominal_voltage 19918.58; 
} 

object node:59
{ 
     name R5-35-00-1_node_32; 
     phases CN; 
     voltage_C -9959.29+17250j; 
     nominal_voltage 19918.58; 
} 

object node:60
{ 
     name R5-35-00-1_node_33; 
     phases CN; 
     voltage_C -9959.29+17250j; 
     nominal_voltage 19918.58; 
} 

object node:61
{ 
     name R5-35-00-1_node_34; 
     phases CN; 
     voltage_C -9959.29+17250j; 
     nominal_voltage 19918.58; 
} 

object node:62
{ 
     name R5-35-00-1_node_35; 
     phases AN; 
     voltage_A 19918.58+0.0j; 
     nominal_voltage 19918.58; 
} 

object node:63
{ 
     name R5-35-00-1_node_36; 
     phases AN; 
     voltage_A 19918.58+0.0j; 
     nominal_voltage 19918.58; 
} 

object node:64
{ 
     name R5-35-00-1_node_37; 
     phases AN; 
     voltage_A 19918.58+0.0j; 
     nominal_voltage 19918.58; 
} 

object node:65
{ 
     name R5-35-00-1_node_38; 
     phases ABCN; 
     voltage_A 19918.58+0.0j; 
     voltage_B -9959.29-17250j; 
     voltage_C -9959.29+17250j; 
     nominal_voltage 19918.58; 
} 

object node:66
{ 
     name R5-35-00-1_node_39; 
     phases AN; 
     voltage_A 19918.58+0.0j; 
     nominal_voltage 19918.58; 
} 

object node:67
{ 
     name R5-35-00-1_node_40; 
     phases BN; 
     voltage_B -9959.29-17250j; 
     nominal_voltage 19918.58; 
} 

object node:68
{ 
     name R5-35-00-1_node_41; 
     phases AN; 
     voltage_A 19918.58+0.0j; 
     nominal_voltage 19918.58; 
} 

object node:69
{ 
     name R5-35-00-1_node_42; 
     phases CN; 
     voltage_C -9959.29+17250j; 
     nominal_voltage 19918.58; 
} 

object node:70
{ 
     name R5-35-00-1_node_43; 
     phases CN; 
     voltage_C -9959.29+17250j; 
     nominal_voltage 19918.58; 
} 

object node:71
{ 
     name R5-35-00-1_node_44; 
     phases CN; 
     voltage_C -9959.29+17250j; 
     nominal_voltage 19918.58; 
} 

object node:72
{ 
     name R5-35-00-1_node_45; 
     phases CN; 
     voltage_C -9959.29+17250j; 
     nominal_voltage 19918.58; 
} 

object node:73
{ 
     name R5-35-00-1_node_46; 
     phases CN; 
     voltage_C -9959.29+17250j; 
     nominal_voltage 19918.58; 
} 

object node:74
{ 
     name R5-35-00-1_node_47; 
     phases BN; 
     voltage_B -9959.29-17250j; 
     nominal_voltage 19918.58; 
} 

object node:75
{ 
     name R5-35-00-1_node_48; 
     phases BN; 
     voltage_B -9959.29-17250j; 
     nominal_voltage 19918.58; 
} 

object node:76
{ 
     name R5-35-00-1_node_49; 
     phases BN; 
     voltage_B -9959.29-17250j; 
     nominal_voltage 19918.58; 
} 

object node:77
{ 
     name R5-35-00-1_node_50; 
     phases BN; 
     voltage_B -9959.29-17250j; 
     nominal_voltage 19918.58; 
} 

object node:78
{ 
     name R5-35-00-1_node_51; 
     phases BN; 
     voltage_B -9959.29-17250j; 
     nominal_voltage 19918.58; 
} 

object node:79
{ 
     name R5-35-00-1_node_52; 
     phases CN; 
     voltage_C -9959.29+17250j; 
     nominal_voltage 19918.58; 
} 

object node:80
{ 
     name R5-35-00-1_node_53; 
     phases AN; 
     voltage_A 19918.58+0.0j; 
     nominal_voltage 19918.58; 
} 

object node:81
{ 
     name R5-35-00-1_node_54; 
     phases AN; 
     voltage_A 19918.58+0.0j; 
     nominal_voltage 19918.58; 
} 

object node:82
{ 
     name R5-35-00-1_node_55; 
     phases AN; 
     voltage_A 19918.58+0.0j; 
     nominal_voltage 19918.58; 
} 

object node:83
{ 
     name R5-35-00-1_node_56; 
     phases AN; 
     voltage_A 19918.58+0.0j; 
     nominal_voltage 19918.58; 
} 

object node:84
{ 
     name R5-35-00-1_node_57; 
     phases AN; 
     voltage_A 19918.58+0.0j; 
     nominal_voltage 19918.58; 
} 

object node:85
{ 
     name R5-35-00-1_node_58; 
     phases AN; 
     voltage_A 19918.58+0.0j; 
     nominal_voltage 19918.58; 
} 

object node:86
{ 
     name R5-35-00-1_node_59; 
     phases AN; 
     voltage_A 19918.58+0.0j; 
     nominal_voltage 19918.58; 
} 

object node:87
{ 
     name R5-35-00-1_node_60; 
     phases AN; 
     voltage_A 19918.58+0.0j; 
     nominal_voltage 19918.58; 
} 

object node:88
{ 
     name R5-35-00-1_node_61; 
     phases AN; 
     voltage_A 19918.58+0.0j; 
     nominal_voltage 19918.58; 
} 

object node:89
{ 
     name R5-35-00-1_node_62; 
     phases AN; 
     voltage_A 19918.58+0.0j; 
     nominal_voltage 19918.58; 
} 

object node:90
{ 
     name R5-35-00-1_node_63; 
     phases CN; 
     voltage_C -9959.29+17250j; 
     nominal_voltage 19918.58; 
} 

object node:91
{ 
     name R5-35-00-1_node_64; 
     phases AN; 
     voltage_A 19918.58+0.0j; 
     nominal_voltage 19918.58; 
} 

object node:92
{ 
     name R5-35-00-1_node_65; 
     phases BN; 
     voltage_B -9959.29-17250j; 
     nominal_voltage 19918.58; 
} 

object node:93
{ 
     name R5-35-00-1_node_66; 
     phases AN; 
     voltage_A 19918.58+0.0j; 
     nominal_voltage 19918.58; 
} 

object node:94
{ 
     name R5-35-00-1_node_67; 
     phases ABCN; 
     voltage_A 19918.58+0.0j; 
     voltage_B -9959.29-17250j; 
     voltage_C -9959.29+17250j; 
     nominal_voltage 19918.58; 
} 

object node:95
{ 
     name R5-35-00-1_node_68; 
     parent R5-35-00-1_meter_48; 
     phases ABCN; 
     voltage_A 19918.58+0.0j; 
     voltage_B -9959.29-17250j; 
     voltage_C -9959.29+17250j; 
     nominal_voltage 19918.58; 
} 

object node:96
{ 
     name R5-35-00-1_node_69; 
     phases BN; 
     voltage_B -9959.29-17250j; 
     nominal_voltage 19918.58; 
} 

object node:97
{ 
     name R5-35-00-1_node_70; 
     phases CN; 
     voltage_C -9959.29+17250j; 
     nominal_voltage 19918.58; 
} 

object node:98
{ 
     name R5-35-00-1_node_71; 
     phases BN; 
     voltage_B -9959.29-17250j; 
     nominal_voltage 19918.58; 
} 

object node:99
{ 
     name R5-35-00-1_node_72; 
     phases BN; 
     voltage_B -9959.29-17250j; 
     nominal_voltage 19918.58; 
} 

object node:100
{ 
     name R5-35-00-1_node_73; 
     phases BN; 
     voltage_B -9959.29-17250j; 
     nominal_voltage 19918.58; 
} 

object node:101
{ 
     name R5-35-00-1_node_74; 
     phases BN; 
     voltage_B -9959.29-17250j; 
     nominal_voltage 19918.58; 
} 

object node:102
{ 
     name R5-35-00-1_node_75; 
     phases CN; 
     voltage_C -9959.29+17250j; 
     nominal_voltage 19918.58; 
} 

object node:103
{ 
     name R5-35-00-1_node_76; 
     phases CN; 
     voltage_C -9959.29+17250j; 
     nominal_voltage 19918.58; 
} 

object node:104
{ 
     name R5-35-00-1_node_77; 
     phases CN; 
     voltage_C -9959.29+17250j; 
     nominal_voltage 19918.58; 
} 

object node:105
{ 
     name R5-35-00-1_node_78; 
     phases BN; 
     voltage_B -9959.29-17250j; 
     nominal_voltage 19918.58; 
} 

object node:106
{ 
     name R5-35-00-1_node_79; 
     phases BN; 
     voltage_B -9959.29-17250j; 
     nominal_voltage 19918.58; 
} 

object node:107
{ 
     name R5-35-00-1_node_80; 
     phases CN; 
     voltage_C -9959.29+17250j; 
     nominal_voltage 19918.58; 
} 

object node:108
{ 
     name R5-35-00-1_node_81; 
     phases CN; 
     voltage_C -9959.29+17250j; 
     nominal_voltage 19918.58; 
} 

object node:109
{ 
     name R5-35-00-1_node_82; 
     phases CN; 
     voltage_C -9959.29+17250j; 
     nominal_voltage 19918.58; 
} 

object node:110
{ 
     name R5-35-00-1_node_83; 
     phases ABCN; 
     voltage_A 19918.58+0.0j; 
     voltage_B -9959.29-17250j; 
     voltage_C -9959.29+17250j; 
     nominal_voltage 19918.58; 
} 

object node:111
{ 
     name R5-35-00-1_node_84; 
     phases CN; 
     voltage_C -9959.29+17250j; 
     nominal_voltage 19918.58; 
} 

object node:112
{ 
     name R5-35-00-1_node_85; 
     phases CN; 
     voltage_C -9959.29+17250j; 
     nominal_voltage 19918.58; 
} 

object node:113
{ 
     name R5-35-00-1_node_86; 
     phases CN; 
     voltage_C -9959.29+17250j; 
     nominal_voltage 19918.58; 
} 

object node:114
{ 
     name R5-35-00-1_node_87; 
     phases CN; 
     voltage_C -9959.29+17250j; 
     nominal_voltage 19918.58; 
} 

object node:115
{ 
     name R5-35-00-1_node_88; 
     phases CN; 
     voltage_C -9959.29+17250j; 
     nominal_voltage 19918.58; 
} 

object node:116
{ 
     name R5-35-00-1_node_89; 
     phases CN; 
     voltage_C -9959.29+17250j; 
     nominal_voltage 19918.58; 
} 

object node:117
{ 
     name R5-35-00-1_node_90; 
     phases CN; 
     voltage_C -9959.29+17250j; 
     nominal_voltage 19918.58; 
} 

object node:118
{ 
     name R5-35-00-1_node_91; 
     phases CN; 
     voltage_C -9959.29+17250j; 
     nominal_voltage 19918.58; 
} 

object node:119
{ 
     name R5-35-00-1_node_92; 
     phases BN; 
     voltage_B -9959.29-17250j; 
     nominal_voltage 19918.58; 
} 

object node:120
{ 
     name R5-35-00-1_node_93; 
     phases BN; 
     voltage_B -9959.29-17250j; 
     nominal_voltage 19918.58;
} 

object node:121
{ 
     name R5-35-00-1_node_94; 
     phases BN; 
     voltage_B -9959.29-17250j; 
     nominal_voltage 19918.58; 
} 

object node:122
{ 
     name R5-35-00-1_node_95; 
     phases BN; 
     voltage_B -9959.29-17250j; 
     nominal_voltage 19918.58; 
} 

object node:123
{ 
     name R5-35-00-1_node_96; 
     phases BN; 
     voltage_B -9959.29-17250j; 
     nominal_voltage 19918.58; 
} 

object node:124
{ 
     name R5-35-00-1_node_97; 
     phases AN; 
     voltage_A 19918.58+0.0j; 
     nominal_voltage 19918.58; 
} 

object node:125
{ 
     name R5-35-00-1_node_98; 
     phases AN; 
     voltage_A 19918.58+0.0j; 
     nominal_voltage 19918.58; 
} 

object node:126
{ 
     name R5-35-00-1_node_99; 
     phases AN; 
     voltage_A 19918.58+0.0j; 
     nominal_voltage 19918.58; 
} 

object node:127
{ 
     name R5-35-00-1_node_100; 
     phases AN; 
     voltage_A 19918.58+0.0j; 
     nominal_voltage 19918.58; 
} 

object node:128
{ 
     name R5-35-00-1_node_101; 
     phases BN; 
     voltage_B -9959.29-17250j; 
     nominal_voltage 19918.58; 
} 

object node:129
{ 
     name R5-35-00-1_node_102; 
     phases BN; 
     voltage_B -9959.29-17250j; 
     nominal_voltage 19918.58; 
} 

object node:130
{ 
     name R5-35-00-1_node_103; 
     phases AN; 
     voltage_A 19918.58+0.0j; 
     nominal_voltage 19918.58; 
} 

object node:131
{ 
     name R5-35-00-1_node_104; 
     phases AN; 
     voltage_A 19918.58+0.0j; 
     nominal_voltage 19918.58; 
} 

object node:132
{ 
     name R5-35-00-1_node_105; 
     phases AN; 
     voltage_A 19918.58+0.0j; 
     nominal_voltage 19918.58; 
} 

object node:133
{ 
     name R5-35-00-1_node_106; 
     phases CN; 
     voltage_C -9959.29+17250j; 
     nominal_voltage 19918.58; 
} 

object node:134
{ 
     name R5-35-00-1_node_107; 
     phases CN; 
     voltage_C -9959.29+17250j; 
     nominal_voltage 19918.58; 
} 

object node:135
{ 
     name R5-35-00-1_node_108; 
     phases CN; 
     voltage_C -9959.29+17250j; 
     nominal_voltage 19918.58; 
} 

object node:136
{ 
     name R5-35-00-1_node_109; 
     phases AN; 
     voltage_A 19918.58+0.0j; 
     nominal_voltage 19918.58; 
} 

object node:137
{ 
     name R5-35-00-1_node_110; 
     phases AN; 
     voltage_A 19918.58+0.0j; 
     nominal_voltage 19918.58; 
} 

object node:138
{ 
     name R5-35-00-1_node_111; 
     phases BN; 
     voltage_B -9959.29-17250j; 
     nominal_voltage 19918.58; 
} 

object node:139
{ 
     name R5-35-00-1_node_112; 
     phases BN; 
     voltage_B -9959.29-17250j; 
     nominal_voltage 19918.58; 
} 

object node:140
{ 
     name R5-35-00-1_node_113; 
     phases CN; 
     voltage_C -9959.29+17250j; 
     nominal_voltage 19918.58; 
} 

object node:141
{ 
     name R5-35-00-1_node_114; 
     phases AN; 
     voltage_A 19918.58+0.0j; 
     nominal_voltage 19918.58; 
} 

object node:142
{ 
     name R5-35-00-1_node_115; 
     phases AN; 
     voltage_A 19918.58+0.0j; 
     nominal_voltage 19918.58; 
} 

object node:143
{ 
     name R5-35-00-1_node_116; 
     phases AN; 
     voltage_A 19918.58+0.0j; 
     nominal_voltage 19918.58; 
} 

object node:144
{ 
     name R5-35-00-1_node_117; 
     phases CN; 
     voltage_C -9959.29+17250j; 
     nominal_voltage 19918.58; 
} 

object node:145
{ 
     name R5-35-00-1_node_118; 
     phases CN; 
     voltage_C -9959.29+17250j; 
     nominal_voltage 19918.58; 
} 

object node:146
{ 
     name R5-35-00-1_node_119; 
     phases CN; 
     voltage_C -9959.29+17250j; 
     nominal_voltage 19918.58; 
} 

object node:147
{ 
     name R5-35-00-1_node_120; 
     phases BN; 
     voltage_B -9959.29-17250j; 
     nominal_voltage 19918.58; 
} 

object node:148
{ 
     name R5-35-00-1_node_121; 
     phases BN; 
     voltage_B -9959.29-17250j; 
     nominal_voltage 19918.58; 
} 

object node:149
{ 
     name R5-35-00-1_node_122; 
     phases BN; 
     voltage_B -9959.29-17250j; 
     nominal_voltage 19918.58; 
} 

object node:150
{ 
     name R5-35-00-1_node_123; 
     phases BN; 
     voltage_B -9959.29-17250j; 
     nominal_voltage 19918.58; 
} 

object node:151
{ 
     name R5-35-00-1_node_124; 
     phases BN; 
     voltage_B -9959.29-17250j; 
     nominal_voltage 19918.58; 
} 

object node:152
{ 
     name R5-35-00-1_node_125; 
     phases CN; 
     voltage_C -9959.29+17250j; 
     nominal_voltage 19918.58; 
} 

object node:153
{ 
     name R5-35-00-1_node_126; 
     phases AN; 
     voltage_A 19918.58+0.0j; 
     nominal_voltage 19918.58; 
} 

object node:154
{ 
     name R5-35-00-1_node_127; 
     phases AN; 
     voltage_A 19918.58+0.0j; 
     nominal_voltage 19918.58; 
} 

object node:155
{ 
     name R5-35-00-1_node_128; 
     phases CN; 
     voltage_C -9959.29+17250j; 
     nominal_voltage 19918.58; 
} 

object node:156
{ 
     name R5-35-00-1_node_129; 
     phases CN; 
     voltage_C -9959.29+17250j; 
     nominal_voltage 19918.58; 
} 

object node:157
{ 
     name R5-35-00-1_node_130; 
     phases CN; 
     voltage_C -9959.29+17250j; 
     nominal_voltage 19918.58; 
} 

object node:158
{ 
     name R5-35-00-1_node_131; 
     phases CN; 
     voltage_C -9959.29+17250j; 
     nominal_voltage 19918.58; 
} 

object node:159
{ 
     name R5-35-00-1_node_132; 
     phases BN; 
     voltage_B -9959.29-17250j; 
     nominal_voltage 19918.58; 
} 

object node:160
{ 
     name R5-35-00-1_node_133; 
     phases CN; 
     voltage_C -9959.29+17250j; 
     nominal_voltage 19918.58; 
} 

object node:161
{ 
     name R5-35-00-1_node_134; 
     phases BN; 
     voltage_B -9959.29-17250j; 
     nominal_voltage 19918.58; 
} 

object node:162
{ 
     name R5-35-00-1_node_135; 
     phases AN; 
     voltage_A 19918.58+0.0j; 
     nominal_voltage 19918.58; 
} 

object node:163
{ 
     name R5-35-00-1_node_136; 
     phases AN; 
     voltage_A 19918.58+0.0j; 
     nominal_voltage 19918.58; 
} 

object node:164
{ 
     name R5-35-00-1_node_137; 
     phases AN; 
     voltage_A 19918.58+0.0j; 
     nominal_voltage 19918.58; 
} 

object node:165
{ 
     name R5-35-00-1_node_138; 
     phases AN; 
     voltage_A 19918.58+0.0j; 
     nominal_voltage 19918.58; 
} 

object node:166
{ 
     name R5-35-00-1_node_139; 
     phases AN; 
     voltage_A 19918.58+0.0j; 
     nominal_voltage 19918.58; 
} 

object node:167
{ 
     name R5-35-00-1_node_140; 
     phases AN; 
     voltage_A 19918.58+0.0j; 
     nominal_voltage 19918.58; 
} 

object node:168
{ 
     name R5-35-00-1_node_141; 
     phases AN; 
     voltage_A 19918.58+0.0j; 
     nominal_voltage 19918.58; 
} 

object node:169
{ 
     name R5-35-00-1_node_142; 
     phases AN; 
     voltage_A 19918.58+0.0j; 
     nominal_voltage 19918.58; 
} 

object node:170
{ 
     name R5-35-00-1_node_143; 
     phases AN; 
     voltage_A 19918.58+0.0j; 
     nominal_voltage 19918.58; 
} 

object node:171
{ 
     name R5-35-00-1_node_144; 
     phases BN; 
     voltage_B -9959.29-17250j; 
     nominal_voltage 19918.58; 
} 

object node:172
{ 
     name R5-35-00-1_node_145; 
     phases BN; 
     voltage_B -9959.29-17250j; 
     nominal_voltage 19918.58; 
} 

object node:173
{ 
     name R5-35-00-1_node_146; 
     phases BN; 
     voltage_B -9959.29-17250j; 
     nominal_voltage 19918.58; 
} 

object node:174
{ 
     name R5-35-00-1_node_147; 
     phases AN; 
     voltage_A 19918.58+0.0j; 
     nominal_voltage 19918.58; 
} 

object node:175
{ 
     name R5-35-00-1_node_148; 
     phases AN; 
     voltage_A 19918.58+0.0j; 
     nominal_voltage 19918.58; 
} 

object node:176
{ 
     name R5-35-00-1_node_149; 
     phases AN; 
     voltage_A 19918.58+0.0j; 
     nominal_voltage 19918.58; 
} 

object node:177
{ 
     name R5-35-00-1_node_150; 
     phases AN; 
     voltage_A 19918.58+0.0j; 
     nominal_voltage 19918.58; 
} 

object node:178
{ 
     name R5-35-00-1_node_151; 
     phases AN; 
     voltage_A 19918.58+0.0j; 
     nominal_voltage 19918.58; 
} 

object node:179
{ 
     name R5-35-00-1_node_152; 
     phases CN; 
     voltage_C -9959.29+17250j; 
     nominal_voltage 19918.58; 
} 

object node:180
{ 
     name R5-35-00-1_node_153; 
     phases BN; 
     voltage_B -9959.29-17250j; 
     nominal_voltage 19918.58; 
} 

object node:181
{ 
     name R5-35-00-1_node_154; 
     phases ABCN; 
     voltage_A 19918.58+0.0j; 
     voltage_B -9959.29-17250j; 
     voltage_C -9959.29+17250j; 
     nominal_voltage 19918.58; 
} 

object node:182
{ 
     name R5-35-00-1_node_155; 
     phases AN; 
     voltage_A 19918.58+0.0j; 
     nominal_voltage 19918.58; 
} 

object node:183
{ 
     name R5-35-00-1_node_156; 
     phases AN; 
     voltage_A 19918.58+0.0j; 
     nominal_voltage 19918.58; 
} 

object node:184
{ 
     name R5-35-00-1_node_157; 
     phases AN; 
     voltage_A 19918.58+0.0j; 
     nominal_voltage 19918.58; 
} 

object node:185
{ 
     name R5-35-00-1_node_158; 
     phases AN; 
     voltage_A 19918.58+0.0j; 
     nominal_voltage 19918.58; 
} 

object node:186
{ 
     name R5-35-00-1_node_159; 
     phases AN; 
     voltage_A 19918.58+0.0j; 
     nominal_voltage 19918.58; 
} 

object node:187
{ 
     name R5-35-00-1_node_160; 
     phases AN; 
     voltage_A 19918.58+0.0j; 
     nominal_voltage 19918.58; 
} 

object node:188
{ 
     name R5-35-00-1_node_161; 
     phases AN; 
     voltage_A 19918.58+0.0j; 
     nominal_voltage 19918.58; 
} 

object node:189
{ 
     name R5-35-00-1_node_162; 
     phases ABCN; 
     voltage_A 19918.58+0.0j; 
     voltage_B -9959.29-17250j; 
     voltage_C -9959.29+17250j; 
     nominal_voltage 19918.58; 
} 

object node:190
{ 
     name R5-35-00-1_node_163; 
     phases ABCN; 
     voltage_A 19918.58+0.0j; 
     voltage_B -9959.29-17250j; 
     voltage_C -9959.29+17250j; 
     nominal_voltage 19918.58; 
} 

object node:191
{ 
     name R5-35-00-1_node_164; 
     phases ABCN; 
     voltage_A 19918.58+0.0j; 
     voltage_B -9959.29-17250j; 
     voltage_C -9959.29+17250j; 
     nominal_voltage 19918.58; 
} 

object node:192
{ 
     name R5-35-00-1_node_165; 
     phases ABCN; 
     voltage_A 19918.58+0.0j; 
     voltage_B -9959.29-17250j; 
     voltage_C -9959.29+17250j; 
     nominal_voltage 19918.58; 
} 

object node:193
{ 
     name R5-35-00-1_node_166; 
     phases ABCN; 
     voltage_A 19918.58+0.0j; 
     voltage_B -9959.29-17250j; 
     voltage_C -9959.29+17250j; 
     nominal_voltage 19918.58; 
} 

object node:194
{ 
     name R5-35-00-1_node_167; 
     phases ABCN; 
     voltage_A 19918.58+0.0j; 
     voltage_B -9959.29-17250j; 
     voltage_C -9959.29+17250j; 
     nominal_voltage 19918.58; 
} 

object node:195
{ 
     name R5-35-00-1_node_168; 
     phases CN; 
     voltage_C -9959.29+17250j; 
     nominal_voltage 19918.58; 
} 

object node:196
{ 
     name R5-35-00-1_node_169; 
     phases CN; 
     voltage_C -9959.29+17250j; 
     nominal_voltage 19918.58; 
} 

object node:197
{ 
     name R5-35-00-1_node_170; 
     phases CN; 
     voltage_C -9959.29+17250j; 
     nominal_voltage 19918.58; 
} 

object node:198
{ 
     name R5-35-00-1_node_171; 
     phases CN; 
     voltage_C -9959.29+17250j; 
     nominal_voltage 19918.58; 
} 

object node:199
{ 
     name R5-35-00-1_node_172; 
     phases CN; 
     voltage_C -9959.29+17250j; 
     nominal_voltage 19918.58; 
} 

object node:200
{ 
     name R5-35-00-1_node_173; 
     phases CN; 
     voltage_C -9959.29+17250j; 
     nominal_voltage 19918.58; 
} 

object node:201
{ 
     name R5-35-00-1_node_174; 
     phases CN; 
     voltage_C -9959.29+17250j; 
     nominal_voltage 19918.58; 
} 

object node:202
{ 
     name R5-35-00-1_node_175; 
     phases BN; 
     voltage_B -9959.29-17250j; 
     nominal_voltage 19918.58; 
} 

object node:203
{ 
     name R5-35-00-1_node_176; 
     phases BN; 
     voltage_B -9959.29-17250j; 
     nominal_voltage 19918.58; 
} 

object node:204
{ 
     name R5-35-00-1_node_177; 
     phases BN; 
     voltage_B -9959.29-17250j; 
     nominal_voltage 19918.58; 
} 

object node:205
{ 
     name R5-35-00-1_node_178; 
     phases BN; 
     voltage_B -9959.29-17250j; 
     nominal_voltage 19918.58; 
} 

object node:206
{ 
     name R5-35-00-1_node_179; 
     phases BN; 
     voltage_B -9959.29-17250j; 
     nominal_voltage 19918.58; 
} 

object node:207
{ 
     name R5-35-00-1_node_180; 
     phases BN; 
     voltage_B -9959.29-17250j; 
     nominal_voltage 19918.58; 
} 

object node:208
{ 
     name R5-35-00-1_node_181; 
     phases BN; 
     voltage_B -9959.29-17250j; 
     nominal_voltage 19918.58; 
} 

object node:209
{ 
     name R5-35-00-1_node_182; 
     phases BN; 
     voltage_B -9959.29-17250j; 
     nominal_voltage 19918.58; 
} 

object node:210
{ 
     name R5-35-00-1_node_183; 
     phases BN; 
     voltage_B -9959.29-17250j; 
     nominal_voltage 19918.58; 
} 

object node:211
{ 
     name R5-35-00-1_node_184; 
     phases BN; 
     voltage_B -9959.29-17250j; 
     nominal_voltage 19918.58; 
} 

object node:212
{ 
     name R5-35-00-1_node_185; 
     phases CN; 
     voltage_C -9959.29+17250j; 
     nominal_voltage 19918.58; 
} 

object node:213
{ 
     name R5-35-00-1_node_186; 
     phases CN; 
     voltage_C -9959.29+17250j; 
     nominal_voltage 19918.58; 
} 

object node:214
{ 
     name R5-35-00-1_node_187; 
     phases CN; 
     voltage_C -9959.29+17250j; 
     nominal_voltage 19918.58; 
} 

object node:215
{ 
     name R5-35-00-1_node_188; 
     phases ABCN; 
     voltage_A 19918.58+0.0j; 
     voltage_B -9959.29-17250j; 
     voltage_C -9959.29+17250j; 
     nominal_voltage 19918.58; 
} 

object node:216
{ 
     name R5-35-00-1_node_189; 
     phases CN; 
     voltage_C -9959.29+17250j; 
     nominal_voltage 19918.58; 
} 

object node:217
{ 
     name R5-35-00-1_node_190; 
     phases CN; 
     voltage_C -9959.29+17250j; 
     nominal_voltage 19918.58; 
} 

object node:218
{ 
     name R5-35-00-1_node_191; 
     phases CN; 
     voltage_C -9959.29+17250j; 
     nominal_voltage 19918.58; 
} 

object node:219
{ 
     name R5-35-00-1_node_192; 
     phases ABCN; 
     voltage_A 19918.58+0.0j; 
     voltage_B -9959.29-17250j; 
     voltage_C -9959.29+17250j; 
     nominal_voltage 19918.58; 
} 

object node:220
{ 
     name R5-35-00-1_node_193; 
     phases ABCN; 
     voltage_A 19918.58+0.0j; 
     voltage_B -9959.29-17250j; 
     voltage_C -9959.29+17250j; 
     nominal_voltage 19918.58; 
} 

object node:221
{ 
     name R5-35-00-1_node_194; 
     phases ABCN; 
     voltage_A 19918.58+0.0j; 
     voltage_B -9959.29-17250j; 
     voltage_C -9959.29+17250j; 
     nominal_voltage 19918.58; 
} 

object node:222
{ 
     name R5-35-00-1_node_195; 
     phases ABCN; 
     voltage_A 19918.58+0.0j; 
     voltage_B -9959.29-17250j; 
     voltage_C -9959.29+17250j; 
     nominal_voltage 19918.58; 
} 

object node:223
{ 
     name R5-35-00-1_node_196; 
     phases ABCN; 
     voltage_A 19918.58+0.0j; 
...